&setup_nml
 diagfreq =  24   
 hist_avg = .true.  
 histfreq = 'm','x','x','x','x'
 histfreq_n = 1,1,1,1,1           
 ice_ic = 'default'
 lcdf64 = .true. 
 xndt_dyn =  1.0 
/
&grid_nml
 grid_file = '/scratch/user/rmontuoro/cresm/data/pnnl/IRESM/inputdata/ocn/docn7/domain.ocn.us20.20110426.nc'
 grid_format = 'nc'
 grid_type = 'latlon'
 gridcpl_file = 'unknown_gridcpl_file'
 kcatbound =  0 
 kmt_file = '/scratch/user/rmontuoro/cresm/data/pnnl/IRESM/inputdata/ocn/docn7/domain.ocn.us20.20110426.nc'
/
&ice_nml
 advection = 'remap'
 albedo_type = 'default'
 albicei = 0.45
 albicev = 0.75
 albsnowi = 0.73
 albsnowv = 0.98
 dt_mlt_in =  1.50 
 evp_damping = .false.
 kdyn =  0 
 kitd =  0 
 krdg_partic = 1
 krdg_redist = 1
 kstrength =  0 
 ndte =  120 
 r_snw =   1.50 
 rsnw_melt_in =  1500. 
 shortwave = 'dEdd'
/
&tracer_nml
 tr_aero = .false.
 tr_fy =  .false. 
 tr_iage =  .false. 
 tr_pond =  .true. 
/
&domain_nml
 distribution_type = 'cartesian'
 ew_boundary_type = 'cyclic'
 ns_boundary_type = 'open'
 processor_shape = 'square-pop'
 MaxBlock = 115
/
&ice_prescribed_nml
 model_year_align = 1979
 prescribed_ice = .true.
 prescribed_ice_fill = .false.
 stream_domareaname = 'area'
 stream_domfilename = '/scratch/user/rmontuoro/cresm/data/pnnl/IRESM/inputdata/ocn/docn7/domain.ocn.us20.20110426.nc'
 stream_dommaskname = 'mask'
 stream_domtvarname = 'time'
 stream_domxvarname = 'xc'
 stream_domyvarname = 'yc'
 stream_fldfilename = '/scratch/user/rmontuoro/cresm/data/pnnl/IRESM/inputdata/ocn/docn7/SSTDATA_us20_gregorian/sstice_us20_120423.1979.nc',
         '/scratch/user/rmontuoro/cresm/data/pnnl/IRESM/inputdata/ocn/docn7/SSTDATA_us20_gregorian/sstice_us20_120423.1980.nc',
         '/scratch/user/rmontuoro/cresm/data/pnnl/IRESM/inputdata/ocn/docn7/SSTDATA_us20_gregorian/sstice_us20_120423.1981.nc',
         '/scratch/user/rmontuoro/cresm/data/pnnl/IRESM/inputdata/ocn/docn7/SSTDATA_us20_gregorian/sstice_us20_120423.1982.nc',
         '/scratch/user/rmontuoro/cresm/data/pnnl/IRESM/inputdata/ocn/docn7/SSTDATA_us20_gregorian/sstice_us20_120423.1983.nc',
         '/scratch/user/rmontuoro/cresm/data/pnnl/IRESM/inputdata/ocn/docn7/SSTDATA_us20_gregorian/sstice_us20_120423.1984.nc',
         '/scratch/user/rmontuoro/cresm/data/pnnl/IRESM/inputdata/ocn/docn7/SSTDATA_us20_gregorian/sstice_us20_120423.1985.nc',
         '/scratch/user/rmontuoro/cresm/data/pnnl/IRESM/inputdata/ocn/docn7/SSTDATA_us20_gregorian/sstice_us20_120423.1986.nc',
         '/scratch/user/rmontuoro/cresm/data/pnnl/IRESM/inputdata/ocn/docn7/SSTDATA_us20_gregorian/sstice_us20_120423.1987.nc',
         '/scratch/user/rmontuoro/cresm/data/pnnl/IRESM/inputdata/ocn/docn7/SSTDATA_us20_gregorian/sstice_us20_120423.1988.nc',
         '/scratch/user/rmontuoro/cresm/data/pnnl/IRESM/inputdata/ocn/docn7/SSTDATA_us20_gregorian/sstice_us20_120423.1989.nc',
         '/scratch/user/rmontuoro/cresm/data/pnnl/IRESM/inputdata/ocn/docn7/SSTDATA_us20_gregorian/sstice_us20_120423.1990.nc',
         '/scratch/user/rmontuoro/cresm/data/pnnl/IRESM/inputdata/ocn/docn7/SSTDATA_us20_gregorian/sstice_us20_120423.1991.nc',
         '/scratch/user/rmontuoro/cresm/data/pnnl/IRESM/inputdata/ocn/docn7/SSTDATA_us20_gregorian/sstice_us20_120423.1992.nc',
         '/scratch/user/rmontuoro/cresm/data/pnnl/IRESM/inputdata/ocn/docn7/SSTDATA_us20_gregorian/sstice_us20_120423.1993.nc',
         '/scratch/user/rmontuoro/cresm/data/pnnl/IRESM/inputdata/ocn/docn7/SSTDATA_us20_gregorian/sstice_us20_120423.1994.nc',
         '/scratch/user/rmontuoro/cresm/data/pnnl/IRESM/inputdata/ocn/docn7/SSTDATA_us20_gregorian/sstice_us20_120423.1995.nc',
         '/scratch/user/rmontuoro/cresm/data/pnnl/IRESM/inputdata/ocn/docn7/SSTDATA_us20_gregorian/sstice_us20_120423.1996.nc',
         '/scratch/user/rmontuoro/cresm/data/pnnl/IRESM/inputdata/ocn/docn7/SSTDATA_us20_gregorian/sstice_us20_120423.1997.nc',
         '/scratch/user/rmontuoro/cresm/data/pnnl/IRESM/inputdata/ocn/docn7/SSTDATA_us20_gregorian/sstice_us20_120423.1998.nc',
         '/scratch/user/rmontuoro/cresm/data/pnnl/IRESM/inputdata/ocn/docn7/SSTDATA_us20_gregorian/sstice_us20_120423.1999.nc',
         '/scratch/user/rmontuoro/cresm/data/pnnl/IRESM/inputdata/ocn/docn7/SSTDATA_us20_gregorian/sstice_us20_120423.2000.nc',
         '/scratch/user/rmontuoro/cresm/data/pnnl/IRESM/inputdata/ocn/docn7/SSTDATA_us20_gregorian/sstice_us20_120423.2001.nc',
         '/scratch/user/rmontuoro/cresm/data/pnnl/IRESM/inputdata/ocn/docn7/SSTDATA_us20_gregorian/sstice_us20_120423.2002.nc',
         '/scratch/user/rmontuoro/cresm/data/pnnl/IRESM/inputdata/ocn/docn7/SSTDATA_us20_gregorian/sstice_us20_120423.2003.nc',
         '/scratch/user/rmontuoro/cresm/data/pnnl/IRESM/inputdata/ocn/docn7/SSTDATA_us20_gregorian/sstice_us20_120423.2004.nc',
         '/scratch/user/rmontuoro/cresm/data/pnnl/IRESM/inputdata/ocn/docn7/SSTDATA_us20_gregorian/sstice_us20_120423.2005.nc',
         '/scratch/user/rmontuoro/cresm/data/pnnl/IRESM/inputdata/ocn/docn7/SSTDATA_us20_gregorian/sstice_us20_120423.2006.nc',
         '/scratch/user/rmontuoro/cresm/data/pnnl/IRESM/inputdata/ocn/docn7/SSTDATA_us20_gregorian/sstice_us20_120423.2007.nc',
         '/scratch/user/rmontuoro/cresm/data/pnnl/IRESM/inputdata/ocn/docn7/SSTDATA_us20_gregorian/sstice_us20_120423.2008.nc'
 stream_fldvarname = 'ice_cov'
 stream_mapread = 'NOT_SET'
 stream_year_first = 1979
 stream_year_last = 2008
/
&icefields_nml
 f_aero = 'xxxxx'
 f_aicen = 'xxxxx'
 f_aisnap = 'mdxxx'
 f_apondn = 'xxxxx'
 f_congel = 'xxxxx'
 f_daidtd = 'xxxxx'
 f_daidtt = 'xxxxx'
 f_divu = 'xxxxx'
 f_dvidtd = 'xxxxx'
 f_dvidtt = 'xxxxx'
 f_faero_atm = 'xxxxx'
 f_faero_ocn = 'xxxxx'
 f_fhocn = 'xxxxx'
 f_fhocn_ai = 'xxxxx'
 f_frazil = 'xxxxx'
 f_fresh = 'xxxxx'
 f_fresh_ai = 'xxxxx'
 f_frz_onset = 'xxxxx'
 f_frzmlt = 'xxxxx'
 f_fsalt = 'xxxxx'
 f_fsalt_ai = 'xxxxx'
 f_fy = 'mdxxx'
 f_hisnap = 'mdxxx'
 f_icepresent = 'mxxxx'
 f_meltb = 'xxxxx'
 f_meltl = 'xxxxx'
 f_meltt = 'xxxxx'
 f_mlt_onset = 'xxxxx'
 f_opening = 'xxxxx'
 f_shear = 'xxxxx'
 f_sig1 = 'xxxxx'
 f_sig2 = 'xxxxx'
 f_snoice = 'xxxxx'
 f_sss = 'xxxxx'
 f_sst = 'xxxxx'
 f_strairx = 'xxxxx'
 f_strairy = 'xxxxx'
 f_strcorx = 'xxxxx'
 f_strcory = 'xxxxx'
 f_strength = 'xxxxx'
 f_strintx = 'xxxxx'
 f_strinty = 'xxxxx'
 f_strocnx = 'xxxxx'
 f_strocny = 'xxxxx'
 f_strtltx = 'xxxxx'
 f_strtlty = 'xxxxx'
 f_uocn = 'xxxxx'
 f_uvel = 'xxxxx'
 f_vicen = 'xxxxx'
 f_vocn = 'xxxxx'
 f_vvel = 'xxxxx'
/
