&share
 wrf_core = 'ARW',
 max_dom = 1,
 start_date = '2018-09-01_12:00:00','2006-08-16_12:00:00',
 end_date   = '2018-09-07_12:00:00','2006-08-16_12:00:00',
 interval_seconds = 10800
 io_form_geogrid = 2,
/

&geogrid
 parent_id         =   1,   1,
 parent_grid_ratio =   1,   3,
 i_parent_start    =   1,  31,
 j_parent_start    =   1,  17,
 e_we              =  286, 112,
 e_sn              =  271,  97,
 geog_data_res     = '2m','2m',
 dx = 9000,
 dy = 9000,
 map_proj = 'mercator',
 ref_lat   =  28.25,
 ref_lon   = -89.0,
 truelat1  =  20.0,
 truelat2  =  0.0,
 stand_lon = -42.5,
 geog_data_path = '/work/02698/danfu/lonestar/WRF_GEOG/geog/'
/

&ungrib
 out_format = 'WPS',
 prefix = 'FILE'
/

&metgrid
 fg_name = 'FILE'
 io_form_metgrid = 2, 
/
